/*--------------------------------*- C++ -*----------------------------------*\
| =========                 |                                                 |
| \\      /  F ield         | OpenFOAM: The Open Source CFD Toolbox           |
|  \\    /   O peration     | Version:  2.4.x                                 |
|   \\  /    A nd           | Web:      www.OpenFOAM.org                      |
|    \\/     M anipulation  |                                                 |
\*---------------------------------------------------------------------------*/
FoamFile
{
    version     1.0;
    format      binary;
    class       polyBoundaryMesh;
    location    "constant/polyMesh";
    object      boundary;
}
// * * * * * * * * * * * * * * * * * * * * * * * * * * * * * * * * * * * * * //


6
(
lower
{
    type            wall;
    inGroups        1 ( wall );
    nFaces          90000;
    startFace       26850000;
}

upper
{
    type            patch;
    nFaces          90000;
    startFace       26940000;
}

west
{
    type            patch;
    inGroups        1 ( cyclic );
    nFaces          30000;
    startFace       27030000;
    matchTolerance  0.0001;
    transform       unknown;
    neighbourPatch  east;
}

east
{
    type            patch;
    inGroups        1 ( cyclic );
    nFaces          30000;
    startFace       27060000;
    matchTolerance  0.0001;
    transform       unknown;
    neighbourPatch  west;
}

north
{
    type            cyclic;
    inGroups        1 ( cyclic );
    nFaces          30000;
    startFace       27090000;
    matchTolerance  0.0001;
    transform       unknown;
    neighbourPatch  south;
}

south
{
    type            cyclic;
    inGroups        1 ( cyclic );
    nFaces          30000;
    startFace       27120000;
    matchTolerance  0.0001;
    transform       unknown;
    neighbourPatch  north;
}

)


// ************************************************************************* //
